AquaCrop 6.0 (March 2017) - Output created on (date) : 26/06/2019   at (time) : 04:23:43 p.m.

   Day Month  Year   DAP Stage   WC(1.55)   Rain     Irri   Surf   Infilt   RO    Drain       CR    Zgwt       Ex       E     E/Ex     Trx       Tr  Tr/Trx    ETx      ET  ET/ETx      GD       Z     StExp  StSto  StSen StSalt StWeed   CC      CCw     StTr  Kc(Tr)     Trx       Tr      TrW  Tr/Trx   WP    Biomass     HI  YieldPart  Brelative    WPet  WC(1.55) Wr(1.50)     Z       Wr    Wr(SAT)    Wr(FC)   Wr(exp)   Wr(sto)   Wr(sen)   Wr(PWP)    SaltIn    SaltOut   SaltUp   Salt(1.55)  SaltZ     Z       ECe    ECsw   StSalt  Zgwt    ECgw       WC01       WC 2       WC 3       WC 4       WC 5       WC 6       WC 7       WC 8       WC 9       WC10       WC11       WC12      ECe01      ECe 2      ECe 3      ECe 4      ECe 5      ECe 6      ECe 7      ECe 8      ECe 9      ECe10      ECe11      ECe12     Rain       ETo      Tmin      Tavg      Tmax      CO2
                                      mm      mm       mm     mm     mm     mm       mm       mm      m        mm       mm     %        mm       mm    %        mm      mm       %    °C-day     m       %      %      %      %      %      %       %       %       -        mm       mm       mm    %     g/m2    ton/ha      %    ton/ha       %       kg/m3      mm       mm       m       mm        mm        mm        mm        mm        mm         mm    ton/ha    ton/ha    ton/ha    ton/ha    ton/ha     m      dS/m    dS/m      %     m      dS/m       0.05       0.15       0.25       0.35       0.45       0.55       0.67       0.82       0.97       1.13       1.27       1.45       0.05       0.15       0.25       0.35       0.45       0.55       0.67       0.82       0.97       1.13       1.27       1.45       mm        mm       °C        °C        °C       ppm
    22     3  1995     1     1     479.6     0.0     20.0    0.0   20.0    0.0      0.0      0.0   -9.90      5.4      5.4    100      0.0      0.0   100      5.4     5.4     100     21.0    0.30     -9     -9     -9      0     -9     0.0     0.0      0    -9.00      0.0      0.0      0.0   100     0.0     0.000    -9.9    0.000      -9        0.00     479.6    464.6    0.30   104.6     150.0      90.0      78.0      53.8      48.0      30.0    0.064     0.000     0.000     0.064     0.064    0.30     0.07    0.08      0   -9.90   -9.00       44.6       30.0       30.0       30.0       30.0       30.0       30.0       30.0       30.0       30.0       30.0       30.0        0.2        0.0        0.0        0.0        0.0        0.0        0.0        0.0        0.0        0.0        0.0        0.0      0.0       4.9      20.0      25.0      30.0    360.82
    23     3  1995     2     1     472.3     0.0      0.0    0.0    0.0    0.0      2.6      0.0   -9.90      4.7      4.7     99      0.0      0.0   100      4.7     4.7      99     22.9    0.30     -9     -9     -9      0     -9     0.0     0.0      0    -9.00      0.0      0.0      0.0   100     0.0     0.000    -9.9    0.000      -9        0.00     472.3    457.2    0.30    93.7     150.0      90.0      78.0      52.9      48.0      30.0    0.000     0.000     0.000     0.064     0.056    0.30     0.06    0.10      0   -9.90   -9.00       29.1       33.0       31.6       30.9       30.6       30.4       30.3       30.2       30.2       30.1       30.1       30.1        0.1        0.1        0.0        0.0        0.0        0.0        0.0        0.0        0.0        0.0        0.0        0.0      0.0       4.3      23.7      25.4      27.0    360.82
    24     3  1995     3     1     465.6     0.0      0.0    0.0    0.0    0.0      3.7      0.0   -9.90      4.2      2.9     70      0.0      0.0   100      4.2     2.9      70     17.6    0.30     -9     -9     -9      0     -9     0.0     0.0      0    -9.00      0.0      0.0      0.0   100     0.0     0.000    -9.9    0.000      -9        0.00     465.6    450.6    0.30    87.6     150.0      90.0      78.0      52.1      48.0      30.0    0.000     0.000     0.000     0.064     0.050    0.30     0.05    0.09      0   -9.90   -9.00       26.2       30.9       30.5       30.5       30.4       30.3       30.3       30.2       30.2       30.2       30.1       30.1        0.1        0.0        0.0        0.0        0.0        0.0        0.0        0.0        0.0        0.0        0.0        0.0      0.0       3.8      18.0      19.6      21.3    360.82
    25     3  1995     4     1     460.2     0.0      0.0    0.0    0.0    0.0      2.6      0.0   -9.90      5.8      2.9     50      0.0      0.0   100      5.8     2.9      50     20.4    0.30     -9     -9     -9      0     -9     0.0     0.0      0    -9.00      0.0      0.0      0.0   100     0.0     0.000    -9.9    0.000      -9        0.00     460.2    445.1    0.30    83.7     150.0      90.0      78.0      54.5      48.0      30.0    0.000     0.001     0.000     0.063     0.045    0.30     0.05    0.09      0   -9.90   -9.00       23.3       30.3       30.2       30.1       30.1       30.1       30.1       30.1       30.1       30.1       30.1       30.1        0.1        0.0        0.0        0.0        0.0        0.0        0.0        0.0        0.0        0.0        0.0        0.0      0.0       5.3      18.9      23.8      28.7    360.82
    26     3  1995     5     1     473.6     0.0     20.0    0.0   20.0    0.0      1.2      0.0   -9.90      5.4      5.4    100      0.0      0.0   100      5.4     5.4     100     22.9    0.30     -9     -9     -9      0     -9     0.0     0.0      0    -9.00      0.0      0.0      0.0   100     0.0     0.000    -9.9    0.000      -9        0.00     473.6    458.5    0.30    98.0     150.0      90.0      78.0      53.8      48.0      30.0    0.064     0.001     0.000     0.126     0.105    0.30     0.11    0.15      0   -9.90   -9.00       37.9       30.1       30.0       30.0       30.0       30.0       30.0       30.0       30.0       30.0       30.0       30.0        0.3        0.0        0.0        0.0        0.0        0.0        0.0        0.0        0.0        0.0        0.0        0.0      0.0       4.9      23.8      26.9      30.0    360.82
    27     3  1995     6     1     466.9     0.0      0.0    0.0    0.0    0.0      1.8      0.0   -9.90      5.1      4.9     98      0.0      0.0   100      5.1     4.9      98     21.5    0.33     -9     -9     -9      0     -9     0.0     0.0      0    -9.00      0.0      0.0      0.0   100     0.0     0.000    -9.9    0.000      -9        0.00     466.9    451.8    0.33    97.8     162.9      97.8      84.7      58.0      52.1      32.6    0.000     0.001     0.000     0.125     0.094    0.33     0.09    0.16      0   -9.90   -9.00       27.3       31.7       30.9       30.5       30.3       30.2       30.2       30.1       30.1       30.1       30.1       30.1        0.2        0.1        0.0        0.0        0.0        0.0        0.0        0.0        0.0        0.0        0.0        0.0      0.0       4.6      21.0      24.0      27.0    360.82
    28     3  1995     7     1     462.1     0.0      0.0    0.0    0.0    0.0      2.1      0.0   -9.90      3.9      2.7     69      0.0      0.0   100      3.9     2.7      69     19.0    0.38     -9     -9     -9      0     -9     0.0     0.0      0    -9.00      0.0      0.0      0.0   100     0.0     0.000    -9.9    0.000      -9        0.00     462.1    447.1    0.38   108.5     188.2     112.9      97.9      64.8      60.2      37.6    0.000     0.002     0.000     0.123     0.089    0.38     0.07    0.14      0   -9.90   -9.00       24.6       30.5       30.3       30.3       30.2       30.2       30.2       30.1       30.1       30.1       30.1       30.1        0.1        0.1        0.0        0.0        0.0        0.0        0.0        0.0        0.0        0.0        0.0        0.0      0.0       3.5      17.0      21.0      25.0    360.82
    29     3  1995     8     1     458.6     0.0      0.0    0.0    0.0    0.0      1.4      0.0   -9.90      4.0      2.1     52      0.0      0.0   100      4.0     2.1      52     19.5    0.42     -9     -9     -9      0     -9     0.0     0.0      0    -9.00      0.0      0.0      0.0   100     0.0     0.000    -9.9    0.000      -9        0.00     458.6    443.6    0.42   119.3     210.6     126.4     109.5      72.7      67.4      42.1    0.000     0.002     0.000     0.121     0.085    0.42     0.06    0.12      0   -9.90   -9.00       22.6       30.2       30.1       30.1       30.1       30.1       30.1       30.1       30.1       30.1       30.1       30.0        0.1        0.1        0.0        0.0        0.0        0.0        0.0        0.0        0.0        0.0        0.0        0.0      0.0       3.6      17.0      21.5      26.0    360.82
    30     3  1995     9     1     456.6     0.0      0.0    0.0    0.0    0.0      0.7      0.0   -9.90      3.2      1.4     43      0.0      0.0   100      3.2     1.4      43     21.9    0.47     -9     -9     -9      0     -9     0.0     0.0      0    -9.00      0.0      0.0      0.0   100     0.0     0.000    -9.9    0.000      -9        0.00     456.6    441.6    0.47   131.2     233.2     139.9     121.3      78.8      74.6      46.6    0.000     0.003     0.000     0.118     0.081    0.47     0.05    0.11      0   -9.90   -9.00       21.2       30.1       30.0       30.0       30.0       30.0       30.0       30.0       30.0       30.0       30.0       30.0        0.1        0.1        0.0        0.0        0.0        0.0        0.0        0.0        0.0        0.0        0.0        0.0      0.0       2.9      21.8      23.9      26.0    360.82
    31     3  1995    10     1     502.3     0.0     50.0    0.0   50.0    0.0      0.3      0.0   -9.90      4.0      4.0    100      0.1      0.1   100      4.1     4.1     100     15.3    0.50     -9      0      0      0      0     0.8     0.8      0     0.01      0.1      0.1      0.1   100    17.6     0.003    -9.9    0.000     100        0.00     502.3    487.3    0.50   185.9     247.8     148.7     124.2      85.8      76.4      49.6    0.160     0.003     0.000     0.275     0.239    0.50     0.15    0.17      0   -9.90   -9.00       45.9       50.0       31.2       30.0       30.0       30.0       30.0       30.0       30.0       30.0       30.0       30.0        0.4        0.3        0.1        0.0        0.0        0.0        0.0        0.0        0.0        0.0        0.0        0.0      0.0       3.7      16.0      17.3      18.5    360.82
     1     4  1995    11     2     486.2     0.0      0.0    0.0    0.0    0.0     10.8      0.0   -9.90      5.2      5.2    100      0.1      0.1   100      5.3     5.3     100     17.9    0.53      0      0      0      0      0     1.0     1.0      0     0.02      0.1      0.1      0.1   100    17.6     0.006    -9.9    0.000     100        0.00     486.2    471.0    0.53   172.0     264.1     158.4     136.5      94.5      84.0      52.8    0.000     0.004     0.000     0.271     0.218    0.53     0.13    0.20      0   -9.90   -9.00       28.8       34.8       34.5       33.0       32.1       31.6       31.2       30.9       30.7       30.5       30.5       30.4        0.2        0.2        0.1        0.1        0.1        0.0        0.0        0.0        0.0        0.0        0.0        0.0      0.0       4.8      14.0      19.9      25.8    360.82
     2     4  1995    12     2     471.3     0.0      0.0    0.0    0.0    0.0     11.8      0.0   -9.90      4.3      3.0     69      0.1      0.1   100      4.4     3.1      70     22.9    0.57      0      0      0      0      0     1.5     1.5      0     0.03      0.1      0.1      0.1   100    17.6     0.011    -9.9    0.000     100        0.00     471.3    456.1    0.57   171.2     283.8     170.3     143.4      99.1      88.2      56.8    0.000     0.006     0.000     0.265     0.204    0.57     0.11    0.19      0   -9.90   -9.00       25.7       31.4       31.3       30.9       30.9       30.9       30.8       30.7       30.6       30.5       30.4       30.4        0.2        0.1        0.1        0.1        0.1        0.1        0.0        0.0        0.0        0.0        0.0        0.0      0.0       4.0      23.9      26.4      29.0    360.82
     3     4  1995    13     2     462.8     0.0      0.0    0.0    0.0    0.0      6.6      0.0   -9.90      3.5      1.8     51      0.1      0.1   100      3.6     1.9      52     21.0    0.60      0      0      0      0      0     2.1     2.1      0     0.04      0.1      0.1      0.1   100    17.6     0.018    -9.9    0.000     100        0.00     462.8    447.7    0.60   176.1     300.9     180.5     149.0     102.9      91.6      60.2    0.000     0.007     0.000     0.258     0.191    0.60     0.10    0.18      0   -9.90   -9.00       23.8       30.4       30.4       30.3       30.3       30.3       30.3       30.3       30.3       30.2       30.2       30.2        0.2        0.1        0.1        0.1        0.1        0.1        0.0        0.0        0.0        0.0        0.0        0.0      0.0       3.3      20.0      24.5      29.0    360.82
     4     4  1995    14     2     458.1     0.0      0.0    0.0    0.0    0.0      2.7      0.0   -9.90      4.5      1.8     41      0.2      0.2   100      4.7     2.1      44     21.0    0.63      0      0      0      0      0     2.9     2.9      0     0.05      0.2      0.2      0.2   100    17.6     0.027    -9.9    0.000     100        0.00     458.1    443.1    0.63   182.7     317.3     190.4     161.7     111.9      99.5      63.5    0.000     0.008     0.000     0.250     0.178    0.63     0.09    0.16      0   -9.90   -9.00       21.7       30.1       30.1       30.1       30.1       30.1       30.1       30.1       30.1       30.1       30.1       30.1        0.2        0.1        0.1        0.1        0.1        0.1        0.0        0.0        0.0        0.0        0.0        0.0      0.0       4.3      20.0      24.5      29.0    360.82
     5     4  1995    15     2     455.4     0.0      0.0    0.0    0.0    0.0      0.9      0.0   -9.90      4.3      1.4     33      0.3      0.3   100      4.6     1.7      38     20.0    0.66      0      0      0      0      0     4.0     4.0      0     0.07      0.3      0.3      0.3   100    17.6     0.040    -9.9    0.000     100        0.00     455.4    440.4    0.66   189.6     332.3     199.4     168.9     116.8     103.9      66.5    0.000     0.010     0.000     0.240     0.166    0.66     0.08    0.15      0   -9.90   -9.00       20.0       30.0       30.0       30.0       30.0       30.0       30.0       30.0       30.0       30.0       30.0       30.0        0.2        0.1        0.1        0.1        0.1        0.1        0.0        0.0        0.0        0.0        0.0        0.0      0.0       4.2      18.0      22.0      26.0    360.82
     6     4  1995    16     2     453.6     0.0      0.0    0.0    0.0    0.0      0.3      0.0   -9.90      4.2      1.2     28      0.4      0.4   100      4.6     1.6      34     19.5    0.69      0      0      0      0      0     5.5     5.5      0     0.10      0.4      0.4      0.4   100    17.6     0.058    -9.9    0.000     100        0.00     453.6    438.6    0.69   196.4     346.5     207.9     176.1     121.8     108.4      69.3    0.000     0.010     0.000     0.230     0.155    0.69     0.07    0.14      0   -9.90   -9.00       18.4       30.0       30.0       30.0       30.0       30.0       30.0       30.0       30.0       30.0       30.0       30.0        0.1        0.1        0.1        0.1        0.1        0.1        0.0        0.0        0.0        0.0        0.0        0.0      0.0       4.2      17.0      21.5      26.0    360.82
     7     4  1995    17     2     452.2     0.0      0.0    0.0    0.0    0.0      0.1      0.0   -9.90      3.3      0.8     24      0.4      0.4   100      3.7     1.2      33     16.9    0.72      0      0      0      0      0     7.3     7.3      0     0.13      0.4      0.4      0.4   100    17.6     0.082    -9.9    0.000     100        0.00     452.2    437.2    0.72   202.3     358.5     215.1     178.0     123.0     109.5      71.7    0.000     0.011     0.000     0.218     0.144    0.72     0.06    0.13      0   -9.90   -9.00       17.2       30.0       30.0       30.0       30.0       30.0       30.0       30.0       30.0       30.0       30.0       30.0        0.1        0.1        0.1        0.1        0.1        0.0        0.0        0.0        0.0        0.0        0.0        0.0      0.0       3.4      17.0      18.9      20.8    360.82
     8     4  1995    18     2     450.7     0.0      0.0    0.0    0.0    0.0      0.0      0.0   -9.90      3.9      0.8     21      0.7      0.7   100      4.6     1.5      33     19.3    0.74      0      0      0      0      0     9.9     9.9      0     0.18      0.7      0.7      0.7   100    17.6     0.113    -9.9    0.000     100        0.00     450.7    435.7    0.74   208.8     371.9     223.1     189.0     130.7     116.3      74.4    0.000     0.012     0.000     0.207     0.135    0.74     0.06    0.12      0   -9.90   -9.00       15.6       30.0       30.0       30.0       30.0       30.0       30.0       30.0       30.0       30.0       30.0       30.0        0.1        0.1        0.0        0.0        0.0        0.0        0.0        0.0        0.0        0.0        0.0        0.0      0.0       4.2      17.2      21.3      25.4    360.82
     9     4  1995    19     2     449.2     0.0      0.0    0.0    0.0    0.0      0.0      0.0   -9.90      3.0      0.5     18      0.9      0.9   100      3.9     1.4      36     23.0    0.77      0      0      0      0      0    14.4    14.4      0     0.25      0.9      0.9      0.9   100    17.6     0.157    -9.9    0.000     100        0.00     449.2    434.2    0.77   216.7     387.4     232.4     192.9     133.3     118.7      77.5    0.000     0.009     0.000     0.198     0.133    0.77     0.05    0.11      0   -9.90   -9.00       14.2       30.0       30.0       30.0       30.0       30.0       30.0       30.0       30.0       30.0       30.0       30.0        0.1        0.1        0.0        0.0        0.0        0.0        0.0        0.0        0.0        0.0        0.0        0.0      0.0       3.5      24.0      25.0      26.0    360.82
    10     4  1995    20     2     495.0     0.0     50.0    0.0   50.0    0.0      0.0      0.0   -9.90      3.0      3.0    100      1.3      1.3   100      4.3     4.3     100     19.0    0.80      0      0      0      0      0    19.6    19.6      0     0.33      1.3      1.3      1.3   100    17.6     0.215    -9.9    0.000     100        0.00     495.0    480.0    0.80   269.9     399.8     239.9     201.5     139.3     123.9      80.0    0.160     0.003     0.000     0.355     0.294    0.80     0.11    0.15      0   -9.90   -9.00       45.7       44.2       30.0       30.0       30.0       30.0       30.0       30.0       30.0       30.0       30.0       30.0        0.4        0.3        0.1        0.0        0.0        0.0        0.0        0.0        0.0        0.0        0.0        0.0      0.0       3.9      16.0      22.0      28.0    360.82
    11     4  1995    21     2     482.6     0.0      0.0    0.0    0.0    0.0      8.0      0.0   -9.90      2.6      2.6    100      1.8      1.8   100      4.4     4.4     100     20.0    0.83      0      0      0      0      0    27.0    27.0      0     0.44      1.8      1.8      1.8   100    17.6     0.292    -9.9    0.000     100        0.00     482.6    467.4    0.83   262.2     412.7     247.6     208.6     144.2     128.3      82.5    0.000     0.013     0.000     0.342     0.279    0.83     0.11    0.17      0   -9.90   -9.00       29.6       34.0       33.8       32.4       31.6       31.2       30.9       30.7       30.5       30.4       30.3       30.3        0.2        0.2        0.1        0.1        0.1        0.1        0.0        0.0        0.0        0.0        0.0        0.0      0.0       4.0      18.0      22.0      26.0    360.82
    12     4  1995    22     2     470.0     0.0      0.0    0.0    0.0    0.0      9.2      0.0   -9.90      1.7      1.7    100      1.7      1.7   100      3.4     3.4     100     15.9    0.85      0      0      0      0      0    35.0    35.0      0     0.54      1.7      1.7      1.7   100    17.6     0.387    -9.9    0.000     100        0.00     470.0    454.8    0.85   255.9     422.7     253.6     208.1     143.7     128.0      84.5    0.000     0.012     0.000     0.329     0.264    0.85     0.10    0.17      0   -9.90   -9.00       26.2       31.2       31.2       30.8       30.8       30.7       30.6       30.5       30.5       30.4       30.3       30.3        0.2        0.2        0.1        0.1        0.1        0.1        0.0        0.0        0.0        0.0        0.0        0.0      0.0       3.1      17.0      17.9      18.8    360.82
    13     4  1995    23     2     460.0     0.0      0.0    0.0    0.0    0.0      5.4      0.0   -9.90      1.8      1.8    100      2.8      2.8   100      4.6     4.6     100     17.9    0.87      0      0      0      0      0    46.7    46.7      0     0.68      2.8      2.8      2.8   100    17.6     0.507    -9.9    0.000     100        0.00     460.0    444.9    0.87   254.0     433.8     260.3     220.5     152.5     135.7      86.8    0.000     0.013     0.000     0.317     0.250    0.87     0.09    0.16      0   -9.90   -9.00       21.6       30.4       30.4       30.2       30.2       30.2       30.2       30.2       30.2       30.2       30.2       30.2        0.2        0.1        0.1        0.1        0.1        0.1        0.0        0.0        0.0        0.0        0.0        0.0      0.0       4.2      16.3      19.9      23.5    360.82
    14     4  1995    24     2     453.5     0.0      0.0    0.0    0.0    0.0      2.2      0.0   -9.90      1.3      0.8     63      3.4      3.4   100      4.7     4.3      90     19.3    0.89      0      0      0      0      0    58.8    58.8      0     0.80      3.4      3.4      3.4   100    17.6     0.647    -9.9    0.000     100        0.00     453.5    438.5    0.89   255.4     445.6     267.3     227.1     157.1     139.7      89.1    0.000     0.014     0.000     0.303     0.235    0.89     0.08    0.16      0   -9.90   -9.00       17.4       30.1       30.1       30.1       30.1       30.1       30.1       30.1       30.1       30.1       30.1       30.1        0.2        0.1        0.1        0.1        0.1        0.1        0.0        0.0        0.0        0.0        0.0        0.0      0.0       4.3      16.5      22.0      27.5    360.82
    15     4  1995    25     2     448.4     0.0      0.0    0.0    0.0    0.0      0.8      0.0   -9.90      1.0      0.4     37      4.0      4.0   100      5.0     4.3      87     19.6    0.91      0      0      0      0      0    67.8    67.8      0     0.88      4.0      4.0      4.0   100    17.6     0.802    -9.9    0.000     100        0.00     448.4    433.4    0.91   257.6     457.3     274.4     234.4     162.2     144.2      91.5    0.000     0.014     0.000     0.289     0.221    0.91     0.08    0.17      0   -9.90   -9.00       13.0       30.0       30.0       30.0       30.0       30.0       30.0       30.0       30.0       30.0       30.0       30.0        0.2        0.1        0.1        0.1        0.1        0.1        0.0        0.0        0.0        0.0        0.0        0.0      0.0       4.5      17.1      22.1      27.0    360.82
    16     4  1995    26     2     444.7     0.0      0.0    0.0    0.0    0.0      0.3      0.0   -9.90      0.6      0.1     21      3.3      3.3   100      3.9     3.4      89     22.2    0.94      0      0      0      0      0    75.1    75.1      0     0.94      3.3      3.3      3.3   100    17.6     0.967    -9.9    0.000     100        0.00     444.7    429.7    0.94   261.9     470.3     282.2     234.3     161.8     144.1      94.1    0.000     0.015     0.000     0.274     0.208    0.94     0.07    0.17      0   -9.90   -9.00        9.6       30.0       30.0       30.0       30.0       30.0       30.0       30.0       30.0       30.0       30.0       30.0        0.1        0.1        0.1        0.1        0.1        0.1        0.0        0.0        0.0        0.0        0.0        0.0      0.0       3.5      22.4      24.2      26.0    360.82
    17     4  1995    27     2     440.5     0.0      0.0    0.0    0.0    0.0      0.1      0.0   -9.90      0.5      0.1     14      4.1      4.1   100      4.6     4.2      90     20.5    0.96      0      0      0      0      0    79.8    79.8      0     0.98      4.1      4.1      4.1   100    17.6     1.140    -9.9    0.000     100        0.00     440.5    425.5    0.96   264.8     482.2     289.3     245.1     169.5     150.8      96.4    0.000     0.015     0.000     0.259     0.195    0.96     0.06    0.16      0   -9.90   -9.00        9.5       25.9       30.0       30.0       30.0       30.0       30.0       30.0       30.0       30.0       30.0       30.0        0.1        0.1        0.1        0.1        0.1        0.1        0.0        0.0        0.0        0.0        0.0        0.0      0.0       4.2      19.0      22.5      26.0    360.82
    18     4  1995    28     2     435.9     0.0      0.0    0.0    0.0    0.0      0.0      0.0   -9.90      0.4      0.0     10      4.5      4.5   100      5.0     4.6      92     20.0    0.99      0      0      0      0      0    83.2    83.2      0     1.00      4.5      4.5      4.5   100    17.6     1.316    -9.9    0.000     100        0.00     435.9    420.9    0.99   267.1     493.6     296.2     253.1     175.1     155.7      98.7    0.000     0.014     0.000     0.245     0.186    0.99     0.06    0.15      0   -9.90   -9.00        9.5       21.4       30.0       30.0       30.0       30.0       30.0       30.0       30.0       30.0       30.0       30.0        0.1        0.1        0.1        0.1        0.1        0.1        0.0        0.0        0.0        0.0        0.0        0.0      0.0       4.5      18.0      22.0      26.0    360.82
    19     4  1995    29     4     431.5     0.0      0.0    0.0    0.0    0.0      0.0      0.0   -9.90      0.3      0.0      7      4.4      4.4   100      4.7     4.4      93     19.5    1.01      0      0      0      0      0    85.6    85.6      0     1.02      4.4      4.4      4.4   100    17.6     1.496    -9.9    0.000     100        0.00     431.5    416.5    1.01   269.2     504.6     302.7     257.2     177.9     158.3     100.9    0.000     0.007     0.000     0.238     0.184    1.01     0.06    0.15      0   -9.90   -9.00        9.5       17.0       30.0       30.0       30.0       30.0       30.0       30.0       30.0       30.0       30.0       30.0        0.1        0.1        0.1        0.1        0.1        0.0        0.0        0.0        0.0        0.0        0.0        0.0      0.0       4.3      17.0      21.5      26.0    360.82
    20     4  1995    30     4     477.5     0.0     50.0    0.0   50.0    0.0      0.0      0.0   -9.90      0.2      0.2    100      3.7      3.7   100      4.0     4.0     100     19.5    1.03      0      0      0      0      0    87.3    87.3      0     1.03      3.7      3.7      3.7   100    17.6     1.677    -9.9    0.000     100        0.00     477.5    462.5    1.03   321.7     515.4     309.2     257.4     177.9     158.4     103.1    0.160     0.002     0.000     0.396     0.345    1.03     0.10    0.15      0   -9.90   -9.00       46.0       26.5       30.0       30.0       30.0       30.0       30.0       30.0       30.0       30.0       30.0       30.0        0.5        0.2        0.1        0.1        0.1        0.0        0.0        0.0        0.0        0.0        0.0        0.0      0.0       3.6      17.0      21.5      26.0    360.82
    21     4  1995    31     4     472.1     0.0      0.0    0.0    0.0    0.0      2.0      0.0   -9.90      0.2      0.2    100      3.2      3.2   100      3.4     3.4     100     16.9    1.05      0      0      0      0      0    88.4    88.4      0     1.04      3.2      3.2      3.2   100    17.6     1.861     1.5    0.028     100        0.03     472.1    457.1    1.05   321.4     524.6     314.8     258.2     178.3     158.8     104.9    0.000     0.017     0.000     0.379     0.330    1.05     0.10    0.16      0   -9.90   -9.00       30.7       32.4       31.3       30.7       30.5       30.3       30.2       30.2       30.1       30.1       30.1       30.1        0.3        0.2        0.1        0.1        0.1        0.1        0.0        0.0        0.0        0.0        0.0        0.0      0.0       3.1      17.0      18.9      20.8    360.82
    22     4  1995    32     4     466.2     0.0      0.0    0.0    0.0    0.0      3.1      0.0   -9.90      0.1      0.1    100      2.7      2.7   100      2.9     2.9     100     15.5    1.07      0      0      0      0      0    89.2    89.2      0     1.05      2.7      2.7      2.7   100    17.6     2.045     1.9    0.038     100        0.04     466.2    451.1    1.07   320.4     533.0     319.8     258.5     178.3     158.9     106.6    0.000     0.014     0.000     0.365     0.317    1.07     0.09    0.16      0   -9.90   -9.00       27.4       30.7       30.5       30.4       30.4       30.3       30.2       30.2       30.2       30.1       30.1       30.1        0.3        0.2        0.1        0.1        0.1        0.1        0.0        0.0        0.0        0.0        0.0        0.0      0.0       2.6      15.8      17.5      19.2    360.82
    23     4  1995    33     4     460.3     0.0      0.0    0.0    0.0    0.0      2.2      0.0   -9.90      0.2      0.2    100      3.5      3.5   100      3.6     3.6     100     23.0    1.09      0      0      0      0      0    90.1    90.1      0     1.05      3.5      3.5      3.5   100    17.6     2.230     2.3    0.051     100        0.05     460.3    445.3    1.09   322.2     545.3     327.2     270.0     186.5     166.1     109.1    0.000     0.014     0.000     0.351     0.305    1.09     0.09    0.16      0   -9.90   -9.00       23.7       30.2       30.1       30.1       30.1       30.1       30.1       30.1       30.1       30.1       30.1       30.1        0.3        0.2        0.1        0.1        0.1        0.1        0.0        0.0        0.0        0.0        0.0        0.0      0.0       3.3      24.0      25.0      26.0    360.82
    24     4  1995    34     4     455.8     0.0      0.0    0.0    0.0    0.0      1.0      0.0   -9.90      0.1      0.1    100      3.4      3.4   100      3.5     3.5     100     18.0    1.11      0      0      0      0      0    90.2    90.2      0     1.05      3.4      3.4      3.4   100    17.6     2.416     2.8    0.068     100        0.06     455.8    440.8    1.11   323.6     554.9     332.9     273.9     189.2     168.5     111.0    0.000     0.015     0.000     0.337     0.291    1.11     0.08    0.15      0   -9.90   -9.00       20.2       30.1       30.0       30.0       30.0       30.0       30.0       30.0       30.0       30.0       30.0       30.0        0.2        0.1        0.1        0.1        0.1        0.1        0.0        0.0        0.0        0.0        0.0        0.0      0.0       3.2      15.0      20.0      25.0    360.82
    25     4  1995    35     4     451.4     0.0      0.0    0.0    0.0    0.0      0.4      0.0   -9.90      0.2      0.2    100      3.8      3.8   100      4.0     4.0     100     17.5    1.13     -9      0      0      0      0    90.7    90.7      0     1.06      3.8      3.8      3.8   100    17.6     2.602     3.4    0.089     100        0.07     451.4    436.4    1.13   324.8     564.0     338.4     281.7     194.7     173.3     112.8    0.000     0.015     0.000     0.322     0.277    1.13     0.08    0.15      0   -9.90   -9.00       16.2       30.0       30.0       30.0       30.0       30.0       30.0       30.0       30.0       30.0       30.0       30.0        0.2        0.1        0.1        0.1        0.1        0.1        0.0        0.0        0.0        0.0        0.0        0.0      0.0       3.6      15.0      19.5      24.0    360.82
    26     4  1995    36     4     447.8     0.0      0.0    0.0    0.0    0.0      0.1      0.0   -9.90      0.1      0.1    100      3.4      3.4   100      3.5     3.5     100     17.5    1.15     -9      0      0      0      0    91.0    91.0      0     1.06      3.4      3.4      3.4   100    17.6     2.788     4.2    0.117     100        0.10     447.8    432.8    1.15   326.6     573.1     343.9     282.9     195.4     174.0     114.6    0.000     0.015     0.000     0.306     0.263    1.15     0.07    0.16      0   -9.90   -9.00       12.7       30.0       30.0       30.0       30.0       30.0       30.0       30.0       30.0       30.0       30.0       30.0        0.2        0.1        0.1        0.1        0.1        0.1        0.0        0.0        0.0        0.0        0.0        0.0      0.0       3.2      15.0      19.5      24.0    360.82
    27     4  1995    37     4     443.2     0.0      0.0    0.0    0.0    0.0      0.0      0.0   -9.90      0.2      0.2    100      4.4      4.4   100      4.5     4.5     100     17.5    1.16     -9      0      0      0      0    91.2    91.2      0     1.06      4.4      4.4      4.4   100    17.6     2.975     5.1    0.152     100        0.12     443.2    428.2    1.16   327.5     582.1     349.2     295.0     204.0     181.5     116.4    0.000     0.015     0.000     0.291     0.249    1.16     0.07    0.16      0   -9.90   -9.00        9.1       29.2       30.0       30.0       30.0       30.0       30.0       30.0       30.0       30.0       30.0       30.0        0.2        0.1        0.1        0.1        0.1        0.1        0.0        0.0        0.0        0.0        0.0        0.0      0.0       4.1      15.0      19.5      24.0    360.82
    28     4  1995    38     4     438.8     0.0      0.0    0.0    0.0    0.0      0.0      0.0   -9.90      0.1      0.1    100      4.3      4.3   100      4.4     4.4     100     17.5    1.18     -9      0      0      0      0    91.4    91.4      0     1.06      4.3      4.3      4.3   100    17.6     3.162     6.2    0.196     100        0.15     438.8    423.8    1.18   328.4     591.0     354.6     298.7     206.5     183.7     118.2    0.000     0.012     0.000     0.280     0.243    1.18     0.06    0.16      0   -9.90   -9.00        8.9       24.9       30.0       30.0       30.0       30.0       30.0       30.0       30.0       30.0       30.0       30.0        0.2        0.1        0.1        0.1        0.1        0.1        0.0        0.0        0.0        0.0        0.0        0.0      0.0       4.0      14.0      19.5      25.0    360.82
    29     4  1995    39     4     434.9     0.0      0.0    0.0    0.0    0.0      0.0      0.0   -9.90      0.1      0.1    100      3.8      3.8   100      4.0     4.0     100     14.9    1.20     -9      0      0      0      0    91.5    91.5      0     1.06      3.8      3.8      3.8   100    17.6     3.349     7.5    0.252     100        0.19     434.9    419.9    1.20   328.9     598.5     359.1     299.0     206.6     183.9     119.7    0.000     0.004     0.000     0.276     0.242    1.20     0.06    0.16      0   -9.90   -9.00        8.8       21.1       30.0       30.0       30.0       30.0       30.0       30.0       30.0       30.0       30.0       30.0        0.2        0.1        0.1        0.1        0.1        0.1        0.0        0.0        0.0        0.0        0.0        0.0      0.0       3.6      14.0      16.9      19.8    360.82
    30     4  1995    40     4     480.2     0.0     50.0    0.0   50.0    0.0      0.0      0.0   -9.90      0.2      0.2    100      4.5      4.5   100      4.6     4.6     100     17.4    1.21     -9      0      0      0      0    91.7    91.7      0     1.06      4.5      4.5      4.5   100    17.6     3.537     9.1    0.321     100        0.23     480.2    465.2    1.21   379.5     607.1     364.3     308.6     213.4     189.9     121.4    0.160     0.001     0.000     0.435     0.402    1.21     0.10    0.15      0   -9.90   -9.00       45.4       29.9       30.0       30.0       30.0       30.0       30.0       30.0       30.0       30.0       30.0       30.0        0.5        0.2        0.1        0.1        0.1        0.1        0.0        0.0        0.0        0.0        0.0        0.0      0.0       4.2      14.0      19.4      24.7    360.82
     1     5  1995    41     4     473.7     0.0      0.0    0.0    0.0    0.0      2.8      0.0   -9.90      0.1      0.1    100      3.6      3.6   100      3.7     3.7     100     15.5    1.23     -9      0      0      0      0    91.7    91.7      0     1.06      3.6      3.6      3.6   100    17.6     3.724    10.9    0.406     100        0.28     473.7    458.7    1.23   377.3     614.8     368.9     305.3     210.9     187.8     123.0    0.000     0.018     0.000     0.417     0.386    1.23     0.10    0.16      0   -9.90   -9.00       30.2       33.1       31.7       30.9       30.6       30.4       30.3       30.2       30.2       30.1       30.1       30.1        0.4        0.2        0.1        0.1        0.1        0.1        0.0        0.0        0.0        0.0        0.0        0.0      0.0       3.4      12.1      17.5      22.9    360.82
     2     5  1995    42     4     465.3     0.0      0.0    0.0    0.0    0.0      4.0      0.0   -9.90      0.1      0.1    100      4.4      4.4   100      4.5     4.5     100     20.9    1.25     -9      0      0      0      0    91.8    91.8      0     1.06      4.4      4.4      4.4   100    17.6     3.911    13.0    0.509     100        0.34     465.3    450.2    1.25   374.9     625.1     375.1     316.8     219.1     194.9     125.0    0.000     0.014     0.000     0.402     0.373    1.25     0.09    0.16      0   -9.90   -9.00       25.6       30.9       30.5       30.5       30.4       30.4       30.3       30.3       30.2       30.2       30.2       30.1        0.3        0.2        0.1        0.1        0.1        0.1        0.0        0.0        0.0        0.0        0.0        0.0      0.0       4.1      19.7      22.9      26.0    360.82
     3     5  1995    43     4     459.0     0.0      0.0    0.0    0.0    0.0      2.7      0.0   -9.90      0.1      0.1    100      3.4      3.4   100      3.5     3.5     100     17.5    1.27     -9      0      0      0      0    91.9    91.9      0     1.06      3.4      3.4      3.4   100    17.6     4.097    15.4    0.633     100        0.42     459.0    444.0    1.27   374.0     633.6     380.2     312.8     216.0     192.4     126.7    0.000     0.015     0.000     0.388     0.359    1.27     0.09    0.16      0   -9.90   -9.00       22.1       30.3       30.2       30.2       30.2       30.1       30.1       30.1       30.1       30.1       30.1       30.1        0.3        0.2        0.1        0.1        0.1        0.1        0.1        0.0        0.0        0.0        0.0        0.0      0.0       3.2      14.0      19.5      25.0    360.82
     4     5  1995    44     4     453.5     0.0      0.0    0.0    0.0    0.0      1.3      0.0   -9.90      0.1      0.1    100      4.1      4.1   100      4.3     4.3     100     17.0    1.28     -9      0      0      0      0    91.9    91.9      0     1.06      4.1      4.1      4.1   100    17.6     4.284    18.2    0.779     100        0.50     453.5    438.5    1.28   373.5     641.8     385.1     323.4     223.6     199.0     128.4    0.000     0.016     0.000     0.372     0.344    1.28     0.08    0.16      0   -9.90   -9.00       17.8       30.1       30.1       30.1       30.0       30.0       30.0       30.0       30.0       30.0       30.0       30.0        0.2        0.2        0.1        0.1        0.1        0.1        0.1        0.0        0.0        0.0        0.0        0.0      0.0       3.9      14.0      19.0      24.0    360.82
     5     5  1995    45     4     449.2     0.0      0.0    0.0    0.0    0.0      0.5      0.0   -9.90      0.1      0.1    100      3.7      3.7   100      3.8     3.8     100     17.5    1.30     -9      0      0      0      0    91.9    91.9      0     1.06      3.7      3.7      3.7   100    17.6     4.470    21.2    0.950     100        0.59     449.2    434.2    1.30   374.3     650.2     390.1     323.9     223.7     199.2     130.0    0.000     0.016     0.000     0.356     0.329    1.30     0.08    0.16      0   -9.90   -9.00       14.0       30.0       30.0       30.0       30.0       30.0       30.0       30.0       30.0       30.0       30.0       30.0        0.2        0.1        0.1        0.1        0.1        0.1        0.1        0.1        0.0        0.0        0.0        0.0      0.0       3.5      14.0      19.5      25.0    360.82
     6     5  1995    46     4     446.2     0.0      0.0    0.0    0.0    0.0      0.2      0.0   -9.90      0.1      0.1    100      2.7      2.7   100      2.8     2.8     100     14.1    1.31     -9      0      0      0      0    91.9    91.9      0     1.06      2.7      2.7      2.7   100    17.6     4.656    24.6    1.146     100        0.70     446.2    431.2    1.31   375.4     657.0     394.2     318.6     219.8     195.9     131.4    0.000     0.017     0.000     0.339     0.313    1.31     0.07    0.16      0   -9.90   -9.00       11.1       30.0       30.0       30.0       30.0       30.0       30.0       30.0       30.0       30.0       30.0       30.0        0.2        0.1        0.1        0.1        0.1        0.1        0.1        0.1        0.0        0.0        0.0        0.0      0.0       2.6      14.0      16.1      18.3    360.82
     7     5  1995    47     4     443.0     0.0      0.0    0.0    0.0    0.0      0.0      0.0   -9.90      0.1      0.1    100      3.1      3.1   100      3.2     3.2     100     16.3    1.33     -9      0      0      0      0    92.0    92.0      0     1.06      3.1      3.1      3.1   100    17.6     4.842    28.2    1.366     100        0.82     443.0    428.0    1.33   376.8     664.7     398.8     325.2     224.5     200.0     132.9    0.000     0.017     0.000     0.323     0.298    1.33     0.07    0.16      0   -9.90   -9.00        9.0       29.0       30.0       30.0       30.0       30.0       30.0       30.0       30.0       30.0       30.0       30.0        0.2        0.1        0.1        0.1        0.1        0.1        0.1        0.0        0.0        0.0        0.0        0.0      0.0       2.9      15.3      18.3      21.3    360.82
     8     5  1995    48     4     438.3     0.0      0.0    0.0    0.0    0.0      0.0      0.0   -9.90      0.1      0.1    100      4.5      4.5   100      4.7     4.7     100     22.1    1.35     -9      0      0      0      0    92.0    92.0      0     1.06      4.5      4.5      4.5   100    17.6     5.028    32.0    1.609     100        0.94     438.3    423.3    1.35   378.3     675.0     405.0     344.1     238.0     211.7     135.0    0.000     0.014     0.000     0.309     0.289    1.35     0.07    0.16      0   -9.90   -9.00        8.9       24.4       30.0       30.0       30.0       30.0       30.0       30.0       30.0       30.0       30.0       30.0        0.2        0.1        0.1        0.1        0.1        0.1        0.1        0.0        0.0        0.0        0.0        0.0      0.0       4.3      22.1      24.6      27.0    360.82
     9     5  1995    49     4     433.8     0.0      0.0    0.0    0.0    0.0      0.0      0.0   -9.90      0.1      0.1    100      4.3      4.3   100      4.5     4.5     100     18.0    1.37     -9      0      0      0      0    92.0    92.0      0     1.05      4.3      4.3      4.3   100    17.6     5.214    35.9    1.873     100        1.07     433.8    418.8    1.37   378.9     683.4     410.0     346.4     239.5     213.1     136.7    0.000     0.004     0.000     0.305     0.286    1.37     0.07    0.16      0   -9.90   -9.00        8.8       20.1       30.0       30.0       30.0       30.0       30.0       30.0       30.0       30.0       30.0       30.0        0.2        0.1        0.1        0.1        0.1        0.1        0.1        0.0        0.0        0.0        0.0        0.0      0.0       4.1      14.0      20.0      26.0    360.82
    10     5  1995    50     4     479.5     0.0     50.0    0.0   50.0    0.0      0.0      0.0   -9.90      0.1      0.1    100      4.2      4.2   100      4.3     4.3     100     18.0    1.38     -9      0      0      0      0    92.0    92.0      0     1.05      4.2      4.2      4.2   100    17.6     5.399    39.9    2.153     100        1.20     479.5    464.5    1.38   429.5     691.7     415.0     349.6     241.7     215.1     138.3    0.160     0.001     0.000     0.463     0.446    1.38     0.10    0.15      0   -9.90   -9.00       45.7       28.8       30.0       30.0       30.0       30.0       30.0       30.0       30.0       30.0       30.0       30.0        0.5        0.2        0.1        0.1        0.1        0.1        0.1        0.0        0.0        0.0        0.0        0.0      0.0       4.0      15.0      20.0      25.0    360.82
    11     5  1995    51     4     472.8     0.0      0.0    0.0    0.0    0.0      2.6      0.0   -9.90      0.1      0.1    100      4.0      4.0   100      4.1     4.1     100     18.5    1.40     -9      0      0      0      0    92.0    92.0      0     1.05      4.0      4.0      4.0   100    17.6     5.584    43.8    2.445     100        1.33     472.8    457.8    1.40   427.8     700.2     420.1     351.8     243.2     216.4     140.0    0.000     0.019     0.000     0.444     0.429    1.40     0.10    0.16      0   -9.90   -9.00       29.9       32.9       31.6       30.9       30.6       30.4       30.3       30.2       30.2       30.1       30.1       30.1        0.4        0.3        0.1        0.1        0.1        0.1        0.1        0.0        0.0        0.0        0.0        0.0      0.0       3.8      15.0      20.5      26.0    360.82
    12     5  1995    52     4     465.1     0.0      0.0    0.0    0.0    0.0      3.6      0.0   -9.90      0.1      0.1    100      4.0      4.0   100      4.1     4.1     100     18.0    1.42     -9      0      0      0      0    92.0    92.0      0     1.05      4.0      4.0      4.0   100    17.6     5.769    47.5    2.743     100        1.46     465.1    450.0    1.42   425.0     708.4     425.0     355.9     246.0     219.0     141.7    0.000     0.016     0.000     0.428     0.415    1.42     0.09    0.16      0   -9.90   -9.00       25.8       30.9       30.5       30.5       30.4       30.3       30.3       30.2       30.2       30.2       30.1       30.1        0.3        0.2        0.1        0.1        0.1        0.1        0.1        0.0        0.0        0.0        0.0        0.0      0.0       3.8      16.0      20.0      24.0    360.82
    13     5  1995    53     4     459.0     0.0      0.0    0.0    0.0    0.0      2.5      0.0   -9.90      0.1      0.1    100      3.4      3.4   100      3.6     3.6     100     18.0    1.43     -9      0      0      0      0    91.8    91.8      0     1.04      3.4      3.4      3.4   100    17.6     5.952    51.1    3.042     100        1.59     459.0    444.0    1.43   423.9     716.6     429.9     354.8     245.0     218.2     143.3    0.000     0.016     0.000     0.412     0.400    1.43     0.09    0.16      0   -9.90   -9.00       22.2       30.3       30.2       30.1       30.1       30.1       30.1       30.1       30.1       30.1       30.1       30.1        0.3        0.2        0.1        0.1        0.1        0.1        0.1        0.1        0.0        0.0        0.0        0.0      0.0       3.3      15.0      20.0      25.0    360.82
    14     5  1995    54     4     454.4     0.0      0.0    0.0    0.0    0.0      1.2      0.0   -9.90      0.1      0.1    100      3.3      3.3   100      3.4     3.4     100     15.6    1.45     -9      0      0      0      0    91.6    91.6      0     1.04      3.3      3.3      3.3   100    17.6     6.135    54.4    3.338     100        1.71     454.4    439.4    1.45   423.5     723.6     434.1     357.2     246.7     219.7     144.7    0.000     0.016     0.000     0.396     0.385    1.45     0.08    0.16      0   -9.90   -9.00       18.8       30.1       30.0       30.0       30.0       30.0       30.0       30.0       30.0       30.0       30.0       30.0        0.3        0.2        0.1        0.1        0.1        0.1        0.1        0.1        0.0        0.0        0.0        0.0      0.0       3.2      15.0      17.6      20.2    360.82
    15     5  1995    55     4     449.7     0.0      0.0    0.0    0.0    0.0      0.4      0.0   -9.90      0.1      0.1    100      4.1      4.1   100      4.3     4.3     100     21.3    1.47     -9      0      0      0      0    91.4    91.4      0     1.04      4.1      4.1      4.1   100    17.6     6.318    57.4    3.626     100        1.82     449.7    434.7    1.47   424.5     733.1     439.9     370.5     256.1     227.9     146.6    0.000     0.017     0.000     0.379     0.370    1.47     0.08    0.16      0   -9.90   -9.00       14.5       30.0       30.0       30.0       30.0       30.0       30.0       30.0       30.0       30.0       30.0       30.0        0.3        0.1        0.1        0.1        0.1        0.1        0.1        0.1        0.0        0.0        0.0        0.0      0.0       4.0      20.6      23.3      26.0    360.82
    16     5  1995    56     4     445.3     0.0      0.0    0.0    0.0    0.0      0.1      0.0   -9.90      0.2      0.2    100      4.1      4.1   100      4.3     4.3     100     18.5    1.48     -9      0      0      0      0    91.2    91.2      0     1.03      4.1      4.1      4.1   100    17.6     6.499    60.1    3.905     100        1.92     445.3    430.3    1.48   425.1     741.3     444.8     374.6     259.0     230.5     148.3    0.000     0.017     0.000     0.362     0.354    1.48     0.07    0.17      0   -9.90   -9.00       10.2       30.0       30.0       30.0       30.0       30.0       30.0       30.0       30.0       30.0       30.0       30.0        0.2        0.1        0.1        0.1        0.1        0.1        0.1        0.1        0.1        0.0        0.0        0.0      0.0       4.0      15.0      20.5      26.0    360.82
    17     5  1995    57     4     441.1     0.0      0.0    0.0    0.0    0.0      0.0      0.0   -9.90      0.2      0.2    100      4.0      4.0   100      4.2     4.2     100     18.5    1.50     -9      0      0      0      0    91.0    91.0      0     1.03      4.0      4.0      4.0   100    17.6     6.679    62.4    4.171     100        2.01     441.1    426.1    1.50   425.8     749.5     449.7     377.7     261.1     232.3     149.9    0.000     0.017     0.000     0.344     0.339    1.50     0.07    0.16      0   -9.90   -9.00        9.9       26.1       30.0       30.0       30.0       30.0       30.0       30.0       30.0       30.0       30.0       30.0        0.2        0.1        0.1        0.1        0.1        0.1        0.1        0.1        0.0        0.0        0.0        0.0      0.0       3.9      16.0      20.5      25.0    360.82
    18     5  1995    58     4     437.8     0.0      0.0    0.0    0.0    0.0      0.0      0.0   -9.90      0.1      0.1    100      3.2      3.2   100      3.3     3.3     100     18.5    1.50     -9      0      0      0      0    90.8    90.8      0     1.02      3.2      3.2      3.2   100    17.6     6.859    64.5    4.424     100        2.10     437.8    422.8    1.50   422.8     750.0     450.0     369.2     254.9     227.0     150.0    0.000     0.013     0.000     0.332     0.326    1.50     0.07    0.16      0   -9.90   -9.00        9.8       23.0       30.0       30.0       30.0       30.0       30.0       30.0       30.0       30.0       30.0       30.0        0.2        0.1        0.1        0.1        0.1        0.1        0.1        0.0        0.0        0.0        0.0        0.0      0.0       3.1      16.0      20.5      25.0    360.82
    19     5  1995    59     4     434.2     0.0      0.0    0.0    0.0    0.0      0.0      0.0   -9.90      0.1      0.1    100      3.4      3.4   100      3.6     3.6     100     20.0    1.50     -9      0      0      0      0    90.5    90.5      0     1.01      3.4      3.4      3.4   100    17.6     7.037    66.3    4.663     100        2.17     434.2    419.2    1.50   419.2     750.0     450.0     372.5     257.3     229.1     150.0    0.000     0.004     0.000     0.328     0.322    1.50     0.07    0.16      0   -9.90   -9.00        9.7       19.5       30.0       30.0       30.0       30.0       30.0       30.0       30.0       30.0       30.0       30.0        0.2        0.1        0.1        0.1        0.1        0.1        0.1        0.0        0.0        0.0        0.0        0.0      0.0       3.4      18.0      22.0      26.0    360.82
    20     5  1995    60     4     480.3     0.0     50.0    0.0   50.0    0.0      0.0      0.0   -9.90      0.2      0.2    100      3.7      3.7   100      3.9     3.9     100     18.5    1.50     -9      0      0      0      0    90.3    90.3      0     1.01      3.7      3.7      3.7   100    17.6     7.215    67.8    4.889     100        2.24     480.3    465.3    1.50   465.3     750.0     450.0     375.7     259.7     231.1     150.0    0.160     0.001     0.000     0.486     0.481    1.50     0.10    0.15      0   -9.90   -9.00       46.1       29.2       30.0       30.0       30.0       30.0       30.0       30.0       30.0       30.0       30.0       30.0        0.5        0.2        0.1        0.1        0.1        0.1        0.1        0.0        0.0        0.0        0.0        0.0      0.0       3.7      16.0      20.5      25.0    360.82
    21     5  1995    61     4     474.2     0.0      0.0    0.0    0.0    0.0      2.7      0.0   -9.90      0.1      0.1    100      3.2      3.2   100      3.4     3.4     100     16.8    1.50     -9      0      0      0      0    90.1    90.1      0     1.00      3.2      3.2      3.2   100    17.6     7.391    69.0    5.102     100        2.30     474.2    459.1    1.50   459.1     750.0     450.0     370.3     255.7     227.7     150.0    0.000     0.020     0.000     0.466     0.461    1.50     0.10    0.15      0   -9.90   -9.00       30.8       33.1       31.7       30.9       30.6       30.4       30.3       30.2       30.2       30.1       30.1       30.1        0.4        0.3        0.1        0.1        0.1        0.1        0.1        0.0        0.0        0.0        0.0        0.0      0.0       3.2      16.0      18.8      21.6    360.82
    22     5  1995    62     4     466.3     0.0      0.0    0.0    0.0    0.0      4.1      0.0   -9.90      0.2      0.2    100      3.7      3.7   100      3.9     3.9     100     20.4    1.50     -9      0      0      0      0    89.8    89.8      0     1.00      3.7      3.7      3.7   100    17.6     7.567    70.1    5.304     100        2.35     466.3    451.2    1.50   451.2     750.0     450.0     375.7     259.7     231.1     150.0    0.000     0.016     0.000     0.450     0.445    1.50     0.09    0.16      0   -9.90   -9.00       26.4       30.9       30.6       30.6       30.5       30.4       30.3       30.3       30.2       30.2       30.2       30.1        0.3        0.2        0.1        0.1        0.1        0.1        0.1        0.1        0.0        0.0        0.0        0.0      0.0       3.7      19.7      22.4      25.0    360.82
    23     5  1995    63     4     460.5     0.0      0.0    0.0    0.0    0.0      2.8      0.0   -9.90      0.1      0.1    100      2.8      2.8   100      2.9     2.9     100     17.5    1.50     -9      0      0      0      0    89.5    89.5      0     0.99      2.8      2.8      2.8   100    17.6     7.741    71.0    5.494     100        2.40     460.5    445.5    1.50   445.5     750.0     450.0     365.9     252.5     225.0     150.0    0.000     0.017     0.000     0.434     0.428    1.50     0.09    0.16      0   -9.90   -9.00       23.5       30.3       30.2       30.2       30.2       30.2       30.1       30.1       30.1       30.1       30.1       30.1        0.3        0.2        0.1        0.1        0.1        0.1        0.1        0.1        0.1        0.0        0.0        0.0      0.0       2.8      15.0      19.5      24.0    360.82
    24     5  1995    64     4     456.3     0.0      0.0    0.0    0.0    0.0      1.3      0.0   -9.90      0.1      0.1    100      2.8      2.8   100      2.9     2.9     100     18.5    1.50     -9      0      0      0      0    89.3    89.3      0     0.99      2.8      2.8      2.8   100    17.6     7.915    71.7    5.675     100        2.45     456.3    441.3    1.50   441.3     750.0     450.0     365.9     252.5     225.0     150.0    0.000     0.017     0.000     0.416     0.411    1.50     0.09    0.16      0   -9.90   -9.00       20.6       30.1       30.1       30.1       30.1       30.1       30.0       30.0       30.0       30.0       30.0       30.0        0.3        0.2        0.1        0.1        0.1        0.1        0.1        0.1        0.1        0.0        0.0        0.0      0.0       2.8      15.0      20.5      26.0    360.82
    25     5  1995    65     4     452.9     0.0      0.0    0.0    0.0    0.0      0.5      0.0   -9.90      0.1      0.1    100      2.7      2.7   100      2.9     2.9     100     18.5    1.50     -9      0      0      0      0    89.0    89.0      0     0.98      2.7      2.7      2.7   100    17.6     8.087    72.3    5.848     100        2.49     452.9    437.9    1.50   437.9     750.0     450.0     365.9     252.5     225.0     150.0    0.000     0.018     0.000     0.399     0.393    1.50     0.08    0.15      0   -9.90   -9.00       17.7       30.0       30.0       30.0       30.0       30.0       30.0       30.0       30.0       30.0       30.0       30.0        0.2        0.2        0.1        0.1        0.1        0.1        0.1        0.1        0.1        0.1        0.0        0.0      0.0       2.8      16.0      20.5      25.0    360.82
    26     5  1995    66     4     449.3     0.0      0.0    0.0    0.0    0.0      0.2      0.0   -9.90      0.2      0.2    100      3.3      3.3   100      3.5     3.5     100     19.0    1.50     -9      0      0      0      0    88.7    88.7      0     0.97      3.3      3.3      3.3   100    17.6     8.258    72.8    6.012     100        2.53     449.3    434.3    1.50   434.3     750.0     450.0     372.5     257.3     229.1     150.0    0.000     0.018     0.000     0.381     0.374    1.50     0.08    0.16      0   -9.90   -9.00       14.2       30.0       30.0       30.0       30.0       30.0       30.0       30.0       30.0       30.0       30.0       30.0        0.2        0.1        0.1        0.1        0.1        0.1        0.1        0.1        0.1        0.1        0.0        0.0      0.0       3.4      16.0      21.5      27.0    360.82
    27     5  1995    67     4     446.4     0.0      0.0    0.0    0.0    0.0      0.1      0.0   -9.90      0.2      0.2    100      2.6      2.6   100      2.8     2.8     100     18.5    1.50     -9      0      0      0      0    88.4    88.4      0     0.97      2.6      2.6      2.6   100    17.6     8.428    73.2    6.170     100        2.56     446.4    431.4    1.50   431.4     750.0     450.0     364.8     251.7     224.3     150.0    0.000     0.018     0.000     0.362     0.356    1.50     0.07    0.16      0   -9.90   -9.00       11.4       30.0       30.0       30.0       30.0       30.0       30.0       30.0       30.0       30.0       30.0       30.0        0.2        0.1        0.1        0.1        0.1        0.1        0.1        0.1        0.1        0.1        0.0        0.0      0.0       2.7      16.0      20.5      25.0    360.82
    28     5  1995    68     4     445.2     0.0      0.0    0.0    0.0    0.0      0.0      0.0   -9.90      1.2      1.2    100      0.0      0.0   100      1.2     1.2     100     14.4    1.50     -9     -9      0      0     -9     0.0     0.0      0    -9.00      0.0      0.0      0.0   100    17.6     8.428    75.0    6.321     100        2.63     445.2    430.2    1.50   430.2     750.0     450.0     364.8     250.1     224.3     150.0    0.000     0.016     0.000     0.346     0.340    1.50     0.07    0.15      0   -9.90   -9.00       10.2       30.0       30.0       30.0       30.0       30.0       30.0       30.0       30.0       30.0       30.0       30.0        0.2        0.2        0.1        0.1        0.1        0.1        0.1        0.1        0.1        0.0        0.0        0.0      0.0       2.5      14.0      16.4      18.8    360.82
