AquaCrop 6.1 (May 2018) - Output created on (date) : 20/08/2020   at (time) : 12:15:08 p.m.
Soil salinity in soil profile and root zone

** Run number:  1   -- Salt balance for soil profile (Total layer: 0.00 - 1.20 m) and soil salinity in root zone (Z)
   Day Month  Year   DAP Stage   SaltIn    SaltOut   SaltUp    SaltTot    SaltZ     Z       ECe    ECsw   StSalt  Zgwt    ECgw
                                 ton/ha    ton/ha    ton/ha    ton/ha    ton/ha     m      dS/m    dS/m      %     m      dS/m
    22     3     1     1    1     0.000     0.000     0.000     0.000     0.000    0.30    0.00    0.00      0   -9.90   -9.00
    23     3     1     2    1     0.000     0.000     0.000     0.000     0.000    0.30    0.00    0.00      0   -9.90   -9.00
    24     3     1     3    1     0.000     0.000     0.000     0.000     0.000    0.30    0.00    0.00      0   -9.90   -9.00
    25     3     1     4    1     0.000     0.000     0.000     0.000     0.000    0.30    0.00    0.00      0   -9.90   -9.00
    26     3     1     5    1     0.000     0.000     0.000     0.000     0.000    0.30    0.00    0.00      0   -9.90   -9.00
    27     3     1     6    2     0.000     0.000     0.000     0.000     0.000    0.30    0.00    0.00      0   -9.90   -9.00
    28     3     1     7    2     0.000     0.000     0.000     0.000     0.000    0.32    0.00    0.00      0   -9.90   -9.00
    29     3     1     8    2     0.000     0.000     0.000     0.000     0.000    0.33    0.00    0.00      0   -9.90   -9.00
    30     3     1     9    2     0.000     0.000     0.000     0.000     0.000    0.35    0.00    0.00      0   -9.90   -9.00
    31     3     1    10    2     0.000     0.000     0.000     0.000     0.000    0.36    0.00    0.00      0   -9.90   -9.00

Legend

DAP          : Days after planting
Stage        : 0: before/after planting
Stage        : 1: emergence or transplant recovery
Stage        : 2: vegetative stage
Stage        : 3: flowering
Stage        : 4: yield formation and ripening
SaltIn       : Salt infiltrated in the soil profile
SaltOut      : Salt drained out of the soil profile
SaltUp       : Salt moved upward from the groundwater table
SaltTot      : Salt content in the total soil profile (layer: 0.00 - 1.20 m)
SaltZ        : Salt content in the effective root zone
Z            : Effective rooting depth
ECe          : Electrical conductivity of the saturated soil-paste extract from the root zone
ECsw         : Electrical conductivity of the soil water in the root zone
StSalt       : Salinity stress
Zgwt         : Depth of the groundwater table (-9.90 if absent)
ECgw         : Electrical conductivity of the groundwater
