AquaCrop 6.1 (May 2018) - Output created on (date) : 20/08/2020   at (time) : 12:15:08 p.m.
Soil Water content in soil profile (WC) and root zone (Wr)

** Run number:  1   -- Water content in soil profile (WCTot layer: 0.00 - 1.20 m) and root zone (Wr with Zx = 1.00 m)
   Day Month  Year   DAP Stage     WCTot   Wr(Zx)      Z       Wr    Wr(SAT)    Wr(FC)   Wr(exp)   Wr(sto)   Wr(sen)   Wr(PWP)
                                     mm       mm       m       mm        mm        mm        mm        mm        mm        mm
    22     3     1     1    1     355.6    295.6    0.30     85.6     150.0      90.0      75.0      60.0      39.0      30.0
    23     3     1     2    1     352.7    292.7    0.30     82.7     150.0      90.0      75.0      60.0      39.0      30.0
    24     3     1     3    1     350.5    290.5    0.30     80.5     150.0      90.0      75.0      60.0      39.0      30.0
    25     3     1     4    1     348.8    288.8    0.30     78.8     150.0      90.0      75.0      60.0      39.0      30.0
    26     3     1     5    1     347.3    287.3    0.30     77.3     150.0      90.0      75.0      60.0      39.0      30.0
    27     3     1     6    2     345.9    285.9    0.30     77.0     151.8      91.1      75.9      60.7      39.5      30.4
    28     3     1     7    2     344.7    284.7    0.32     80.3     159.3      95.6      79.7      63.7      41.4      31.9
    29     3     1     8    2     343.6    283.6    0.33     83.4     166.4      99.8      83.2      66.5      43.3      33.3
    30     3     1     9    2     342.6    282.6    0.35     86.4     173.0     103.8      86.5      69.2      45.0      34.6
    31     3     1    10    2     341.7    281.7    0.36     89.3     179.3     107.6      89.7      71.7      46.6      35.9

Legend

DAP          : Days after planting
Stage        : 0: before/after planting
Stage        : 1: emergence or transplant recovery
Stage        : 2: vegetative stage
Stage        : 3: flowering
Stage        : 4: yield formation and ripening
WCTot        : Water content in total soil profile (layer: 0.00 - 1.20 m)
Wr(Zx)       : Water content in maximum effective root zone (Zx = 1.00 m)
Z            : Effective rooting depth
Wr           : Water content in effective root zone
Wr(Sat)      : Water content in effective root zone if saturated
Wr(FC)       : Water content in effective root zone at field capacity
Wr(exp)      : Water content in effective root zone at upper threshold for leaf expansion
Wr(sto)      : Water content in effective root zone at upper threshold for stomatal closure
Wr(sen)      : Water content in effective root zone at upper threshold for early canopy senescence
Wr(PWP)      : Water content in effective root zone at permanent wilting point
