AquaCrop 6.1 (May 2018) - Output created on (date) : 20/08/2020   at (time) : 12:15:08 p.m.
Soil Water balance

** Run number:  1
   Day Month  Year   DAP Stage     WCTot    Rain     Irri   Surf   Infilt   RO    Drain       CR    Zgwt       Ex       E     E/Ex    Trx       Tr  Tr/Trx    ETx      ET   ET/ETx
                                      mm      mm       mm     mm     mm     mm       mm       mm      m        mm       mm     %       mm       mm    %        mm      mm      %
    22     3     1     1    1      355.6     0.0      0.0    0.0    0.0    0.0      0.0      0.0   -9.90      5.5      4.4    79      0.0      0.0   100      5.5     4.4     79
    23     3     1     2    1      352.7     0.0      0.0    0.0    0.0    0.0      0.0      0.0   -9.90      5.5      2.9    53      0.0      0.0   100      5.5     2.9     53
    24     3     1     3    1      350.5     0.0      0.0    0.0    0.0    0.0      0.0      0.0   -9.90      5.5      2.2    40      0.0      0.0   100      5.5     2.2     40
    25     3     1     4    1      348.8     0.0      0.0    0.0    0.0    0.0      0.0      0.0   -9.90      5.5      1.8    32      0.0      0.0   100      5.5     1.8     32
    26     3     1     5    1      347.3     0.0      0.0    0.0    0.0    0.0      0.0      0.0   -9.90      5.5      1.5    27      0.0      0.0   100      5.5     1.5     27
    27     3     1     6    2      345.9     0.0      0.0    0.0    0.0    0.0      0.0      0.0   -9.90      5.4      1.2    23      0.1      0.1   100      5.5     1.4     25
    28     3     1     7    2      344.7     0.0      0.0    0.0    0.0    0.0      0.0      0.0   -9.90      5.3      1.1    20      0.2      0.2   100      5.5     1.2     22
    29     3     1     8    2      343.6     0.0      0.0    0.0    0.0    0.0      0.0      0.0   -9.90      5.3      0.9    17      0.2      0.2   100      5.5     1.1     20
    30     3     1     9    2      342.6     0.0      0.0    0.0    0.0    0.0      0.0      0.0   -9.90      5.3      0.8    15      0.2      0.2   100      5.5     1.0     18
    31     3     1    10    2      341.7     0.0      0.0    0.0    0.0    0.0      0.0      0.0   -9.90      5.3      0.7    14      0.2      0.2   100      5.5     1.0     17

Legend

DAP          : Days after planting
Stage        : 0: before/after planting
Stage        : 1: emergence or transplant recovery
Stage        : 2: vegetative stage
Stage        : 3: flowering
Stage        : 4: yield formation and ripening
WCTot        : Water content in total soil profile
Rain         : Rainfall
Irri         : Water applied by irrigation
Surf         : Stored water on soil surface between bunds
Infilt       : Infiltrated water in soil profile
RO           : Surface runoff
Drain        : Water drained out of the soil profile
CR           : Water moved upward by capillary rise
Zgwt         : Depth of the groundwater table (-9.90 if absent)
Ex           : Maximum soil evaporation
E            : Soil evaporation
E/Ex         : Relative soil evaporation (100 E/Ex)
Trx          : Maximum crop transpiration
Tr           : Total transpiration of crop and weeds
Tr/Trx       : Relative transpiration (100 Tr/Trx)
ETx          : Evapotranspiration maximale
ET           : Evapotranspiration
ET/ETx       : Evapotranspiration relative (100 ET/ETx)
