AquaCrop 6.1 (May 2018) - Output created on (date) : 20/08/2020   at (time) : 12:15:08 p.m.
Climate input data

** Run number:  1
   Day Month  Year   DAP Stage     Rain       ETo      Tmin      Tavg      Tmax      CO2
                                    mm        mm        °C        °C        °C       ppm
    22     3     1     1    1       0.0       5.0      12.0      20.0      28.0    369.41
    23     3     1     2    1       0.0       5.0      12.0      20.0      28.0    369.41
    24     3     1     3    1       0.0       5.0      12.0      20.0      28.0    369.41
    25     3     1     4    1       0.0       5.0      12.0      20.0      28.0    369.41
    26     3     1     5    1       0.0       5.0      12.0      20.0      28.0    369.41
    27     3     1     6    2       0.0       5.0      12.0      20.0      28.0    369.41
    28     3     1     7    2       0.0       5.0      12.0      20.0      28.0    369.41
    29     3     1     8    2       0.0       5.0      12.0      20.0      28.0    369.41
    30     3     1     9    2       0.0       5.0      12.0      20.0      28.0    369.41
    31     3     1    10    2       0.0       5.0      12.0      20.0      28.0    369.41

Legend

DAP          : Days after planting
Stage        : 0: before/after planting
Stage        : 1: emergence or transplant recovery
Stage        : 2: vegetative stage
Stage        : 3: flowering
Stage        : 4: yield formation and ripening
Rain         : Rainfall
ETo          : Reference evapotranspiration
Tmin         : Minimum air temperature
Tavg         : Average air temperature
Tmax         : Maximum air temperature
CO2          : Atmospheric CO2 concentration
