AquaCrop 6.1 (May 2018) - Output created on (date) : 20/08/2020   at (time) : 12:15:08 p.m.
Electrical conductivity of the saturated soil-paste extract (ECe in dS/m) at various depths (at center of compartments)

** Run number:  1
                 at depth (m):      0.05        0.15        0.25        0.35        0.45        0.55        0.65        0.75        0.85        0.95        1.05        1.15
   Day Month  Year   DAP Stage      ECe1        ECe2        ECe3        ECe4        ECe5        ECe6        ECe7        ECe8        ECe9       ECe10       ECe11       ECe12
    22     3     1     1    1        0.0         0.0         0.0         0.0         0.0         0.0         0.0         0.0         0.0         0.0         0.0         0.0
    23     3     1     2    1        0.0         0.0         0.0         0.0         0.0         0.0         0.0         0.0         0.0         0.0         0.0         0.0
    24     3     1     3    1        0.0         0.0         0.0         0.0         0.0         0.0         0.0         0.0         0.0         0.0         0.0         0.0
    25     3     1     4    1        0.0         0.0         0.0         0.0         0.0         0.0         0.0         0.0         0.0         0.0         0.0         0.0
    26     3     1     5    1        0.0         0.0         0.0         0.0         0.0         0.0         0.0         0.0         0.0         0.0         0.0         0.0
    27     3     1     6    2        0.0         0.0         0.0         0.0         0.0         0.0         0.0         0.0         0.0         0.0         0.0         0.0
    28     3     1     7    2        0.0         0.0         0.0         0.0         0.0         0.0         0.0         0.0         0.0         0.0         0.0         0.0
    29     3     1     8    2        0.0         0.0         0.0         0.0         0.0         0.0         0.0         0.0         0.0         0.0         0.0         0.0
    30     3     1     9    2        0.0         0.0         0.0         0.0         0.0         0.0         0.0         0.0         0.0         0.0         0.0         0.0
    31     3     1    10    2        0.0         0.0         0.0         0.0         0.0         0.0         0.0         0.0         0.0         0.0         0.0         0.0

Legend

DAP          : Days after planting
Stage        : 0: before/after planting
Stage        : 1: emergence or transplant recovery
Stage        : 2: vegetative stage
Stage        : 3: flowering
Stage        : 4: yield formation and ripening
