AquaCrop 6.1 (May 2018) - Output created on (date) : 8/23/2018   at (time) : 12:21:02 PM
Evaluation of simulation results - Statistics

